
     RDKit          3D

 44 48  0  0  0  0  0  0  0  0999 V2000
   -7.4310   31.0557   15.1486 C   0  0  0  0  0  0  0  0  0  0  0  0
   -8.3906   31.9460   15.8075 C   0  0  0  0  0  0  0  0  0  0  0  0
   -8.2950   32.3478   17.0549 C   0  0  0  0  0  0  0  0  0  0  0  0
   -7.1863   31.9033   17.8579 N   0  0  0  0  0  0  0  0  0  0  0  0
   -6.2298   31.0449   17.2787 C   0  0  0  0  0  0  0  0  0  0  0  0
   -6.3285   30.6456   16.0323 C   0  0  0  0  0  0  0  0  0  0  0  0
   -5.2791   29.7348   15.4789 C   0  0  0  0  0  0  0  0  0  0  0  0
   -5.2575   29.5685   14.2477 O   0  0  0  0  0  0  0  0  0  0  0  0
   -4.3658   29.1060   16.3531 N   0  0  0  0  0  0  0  0  0  0  0  0
   -7.0905   32.3460   19.2159 C   0  0  0  0  0  0  0  0  0  0  0  0
   -8.3970   32.7409   19.8148 C   0  0  0  0  0  0  0  0  0  0  0  0
   -8.5599   31.8088   20.9674 C   0  0  0  0  0  0  0  0  0  0  0  0
   -7.3541   30.9399   20.9380 C   0  0  0  0  0  0  0  0  0  0  0  0
   -6.4536   31.4478   20.0476 O   0  0  0  0  0  0  0  0  0  0  0  0
   -6.7718   30.7470   22.3268 C   0  0  0  0  0  0  0  0  0  0  0  0
   -6.2256   29.4535   22.4510 O   0  0  0  0  0  0  0  0  0  0  0  0
   -7.1941   28.4841   23.4328 P   0  0  0  0  0  5  0  0  0  0  0  0
   -8.5159   28.2951   22.7002 O   0  0  0  0  0  0  0  0  0  0  0  0
   -7.5660   29.2508   24.9015 O   0  0  0  0  0  0  0  0  0  0  0  0
   -6.4277   27.0082   23.6673 O   0  0  0  0  0  0  0  0  0  0  0  0
   -6.1633   26.1891   22.2125 P   0  0  0  0  0  5  0  0  0  0  0  0
   -7.4667   26.0158   21.4848 O   0  0  0  0  0  0  0  0  0  0  0  0
   -5.1214   27.0787   21.1997 O   0  0  0  0  0  0  0  0  0  0  0  0
   -5.4586   24.6853   22.4661 O   0  0  0  0  0  0  0  0  0  0  0  0
   -6.2991   23.8793   23.2358 C   0  0  0  0  0  0  0  0  0  0  0  0
   -6.2153   22.4227   22.7647 C   0  0  0  0  0  0  0  0  0  0  0  0
   -4.8153   21.8903   22.9783 C   0  0  0  0  0  0  0  0  0  0  0  0
   -4.9981   21.1190   24.2527 C   0  0  0  0  0  0  0  0  0  0  0  0
   -6.4068   20.6454   24.1190 C   0  0  0  0  0  0  0  0  0  0  0  0
   -7.0896   21.6874   23.5083 O   0  0  0  0  0  0  0  0  0  0  0  0
   -6.5554   19.4793   23.2779 N   0  0  0  0  0  0  0  0  0  0  0  0
   -6.2346   19.2538   22.0105 C   0  0  0  0  0  0  0  0  0  0  0  0
   -6.5617   18.0053   21.6407 N   0  0  0  0  0  0  0  0  0  0  0  0
   -7.1082   17.4198   22.7106 C   0  0  0  0  0  0  0  0  0  0  0  0
   -7.6108   16.1393   22.8599 C   0  0  0  0  0  0  0  0  0  0  0  0
   -8.1075   15.8095   24.0598 N   0  0  0  0  0  0  0  0  0  0  0  0
   -8.1209   16.6859   25.0873 C   0  0  0  0  0  0  0  0  0  0  0  0
   -7.6247   17.9384   24.9265 N   0  0  0  0  0  0  0  0  0  0  0  0
   -7.1049   18.3380   23.7325 C   0  0  0  0  0  0  0  0  0  0  0  0
   -7.5999   15.2118   21.7820 N   0  0  0  0  0  0  0  0  0  0  0  0
   -4.0662   20.1565   24.4896 O   0  0  0  0  0  0  0  0  0  0  0  0
   -3.8759   22.9102   23.1007 O   0  0  0  0  0  0  0  0  0  0  0  0
   -8.6597   32.5681   22.1350 O   0  0  0  0  0  0  0  0  0  0  0  0
   -8.4204   34.0864   20.2341 O   0  0  0  0  0  0  0  0  0  0  0  0
  1  2  1  0
  2  3  2  0
  3  4  1  0
  4  5  1  0
  5  6  2  0
  6  7  1  0
  7  8  2  0
  7  9  1  0
  4 10  1  0
 10 11  1  0
 11 12  1  0
 12 13  1  0
 13 14  1  0
 13 15  1  0
 15 16  1  0
 16 17  1  0
 17 18  2  0
 17 19  1  0
 17 20  1  0
 20 21  1  0
 21 22  2  0
 21 23  1  0
 21 24  1  0
 24 25  1  0
 25 26  1  0
 26 27  1  0
 27 28  1  0
 28 29  1  0
 29 30  1  0
 29 31  1  0
 31 32  1  0
 32 33  2  0
 33 34  1  0
 34 35  2  0
 35 36  1  0
 36 37  2  0
 37 38  1  0
 38 39  2  0
 35 40  1  0
 28 41  1  0
 27 42  1  0
 12 43  1  0
 11 44  1  0
  6  1  1  0
 14 10  1  0
 30 26  1  0
 39 31  1  0
 39 34  1  0
M  END
$$$$
