
     RDKit          3D

 44 48  0  0  0  0  0  0  0  0999 V2000
   -7.0461   32.7399   20.3030 C   0  0  0  0  0  0  0  0  0  0  0  0
   -6.3068   32.0140   19.2667 C   0  0  0  0  0  0  0  0  0  0  0  0
   -5.7987   30.8121   19.4213 C   0  0  0  0  0  0  0  0  0  0  0  0
   -5.9598   30.1330   20.6801 N   0  0  0  0  0  0  0  0  0  0  0  0
   -6.6623   30.7814   21.7161 C   0  0  0  0  0  0  0  0  0  0  0  0
   -7.1685   31.9820   21.5580 C   0  0  0  0  0  0  0  0  0  0  0  0
   -7.9030   32.6135   22.6976 C   0  0  0  0  0  0  0  0  0  0  0  0
   -8.6541   33.5679   22.4352 O   0  0  0  0  0  0  0  0  0  0  0  0
   -7.7242   32.1168   24.0072 N   0  0  0  0  0  0  0  0  0  0  0  0
   -5.4026   28.8240   20.8396 C   0  0  0  0  0  0  0  0  0  0  0  0
   -5.7701   28.1649   22.1249 C   0  0  0  0  0  0  0  0  0  0  0  0
   -6.4989   26.9346   21.7019 C   0  0  0  0  0  0  0  0  0  0  0  0
   -6.5140   26.9833   20.2162 C   0  0  0  0  0  0  0  0  0  0  0  0
   -5.6779   27.9731   19.7887 O   0  0  0  0  0  0  0  0  0  0  0  0
   -6.1897   25.6293   19.6106 C   0  0  0  0  0  0  0  0  0  0  0  0
   -7.3776   24.9271   19.3227 O   0  0  0  0  0  0  0  0  0  0  0  0
   -7.3752   23.4131   20.0640 P   0  0  0  0  0  5  0  0  0  0  0  0
   -8.8303   23.0486   20.3279 O   0  0  0  0  0  0  0  0  0  0  0  0
   -6.6100   23.4567   21.5791 O   0  0  0  0  0  0  0  0  0  0  0  0
   -6.6618   22.3002   19.0280 O   0  0  0  0  0  0  0  0  0  0  0  0
   -6.1027   23.0213   17.6051 P   0  0  0  0  0  5  0  0  0  0  0  0
   -7.0983   24.0414   17.1291 O   0  0  0  0  0  0  0  0  0  0  0  0
   -4.6271   23.8284   17.8770 O   0  0  0  0  0  0  0  0  0  0  0  0
   -5.8415   21.8857   16.3949 O   0  0  0  0  0  0  0  0  0  0  0  0
   -4.8913   20.9491   16.8053 C   0  0  0  0  0  0  0  0  0  0  0  0
   -5.1985   19.5777   16.1927 C   0  0  0  0  0  0  0  0  0  0  0  0
   -5.0089   19.6279   14.6925 C   0  0  0  0  0  0  0  0  0  0  0  0
   -3.6468   19.0118   14.5594 C   0  0  0  0  0  0  0  0  0  0  0  0
   -3.6428   18.0416   15.6931 C   0  0  0  0  0  0  0  0  0  0  0  0
   -4.3262   18.6738   16.7218 O   0  0  0  0  0  0  0  0  0  0  0  0
   -4.3362   16.8056   15.4088 N   0  0  0  0  0  0  0  0  0  0  0  0
   -5.5807   16.4125   15.6466 C   0  0  0  0  0  0  0  0  0  0  0  0
   -5.7896   15.1632   15.2016 N   0  0  0  0  0  0  0  0  0  0  0  0
   -4.6379   14.7508   14.6634 C   0  0  0  0  0  0  0  0  0  0  0  0
   -4.3209   13.5433   14.0668 C   0  0  0  0  0  0  0  0  0  0  0  0
   -3.0718   13.3943   13.6054 N   0  0  0  0  0  0  0  0  0  0  0  0
   -2.1533   14.3784   13.7142 C   0  0  0  0  0  0  0  0  0  0  0  0
   -2.4782   15.5575   14.3017 N   0  0  0  0  0  0  0  0  0  0  0  0
   -3.7305   15.7742   14.7919 C   0  0  0  0  0  0  0  0  0  0  0  0
   -5.2833   12.5030   13.9493 N   0  0  0  0  0  0  0  0  0  0  0  0
   -3.3579   18.4968   13.3338 O   0  0  0  0  0  0  0  0  0  0  0  0
   -5.0584   20.9279   14.1975 O   0  0  0  0  0  0  0  0  0  0  0  0
   -5.8173   25.8254   22.2067 O   0  0  0  0  0  0  0  0  0  0  0  0
   -4.6476   27.8509   22.9174 O   0  0  0  0  0  0  0  0  0  0  0  0
  1  2  1  0
  2  3  2  0
  3  4  1  0
  4  5  1  0
  5  6  2  0
  6  7  1  0
  7  8  2  0
  7  9  1  0
  4 10  1  0
 10 11  1  0
 11 12  1  0
 12 13  1  0
 13 14  1  0
 13 15  1  0
 15 16  1  0
 16 17  1  0
 17 18  2  0
 17 19  1  0
 17 20  1  0
 20 21  1  0
 21 22  2  0
 21 23  1  0
 21 24  1  0
 24 25  1  0
 25 26  1  0
 26 27  1  0
 27 28  1  0
 28 29  1  0
 29 30  1  0
 29 31  1  0
 31 32  1  0
 32 33  2  0
 33 34  1  0
 34 35  2  0
 35 36  1  0
 36 37  2  0
 37 38  1  0
 38 39  2  0
 35 40  1  0
 28 41  1  0
 27 42  1  0
 12 43  1  0
 11 44  1  0
  6  1  1  0
 14 10  1  0
 30 26  1  0
 39 31  1  0
 39 34  1  0
M  END
$$$$
