
     RDKit          3D

 44 48  0  0  0  0  0  0  0  0999 V2000
   -8.5171   32.0043   25.6738 C   0  0  0  0  0  0  0  0  0  0  0  0
   -7.4552   32.2467   24.6934 C   0  0  0  0  0  0  0  0  0  0  0  0
   -6.6028   31.3354   24.2817 C   0  0  0  0  0  0  0  0  0  0  0  0
   -6.6882   29.9984   24.8079 N   0  0  0  0  0  0  0  0  0  0  0  0
   -7.6901   29.7044   25.7550 C   0  0  0  0  0  0  0  0  0  0  0  0
   -8.5398   30.6173   26.1639 C   0  0  0  0  0  0  0  0  0  0  0  0
   -9.5791   30.2393   27.1709 C   0  0  0  0  0  0  0  0  0  0  0  0
  -10.4946   31.0528   27.3809 O   0  0  0  0  0  0  0  0  0  0  0  0
   -9.4899   28.9976   27.8370 N   0  0  0  0  0  0  0  0  0  0  0  0
   -5.7552   29.0122   24.3538 C   0  0  0  0  0  0  0  0  0  0  0  0
   -6.0530   27.6336   24.8357 C   0  0  0  0  0  0  0  0  0  0  0  0
   -6.2682   26.8539   23.5829 C   0  0  0  0  0  0  0  0  0  0  0  0
   -6.0981   27.8360   22.4799 C   0  0  0  0  0  0  0  0  0  0  0  0
   -5.5882   28.9968   22.9840 O   0  0  0  0  0  0  0  0  0  0  0  0
   -5.2645   27.2637   21.3474 C   0  0  0  0  0  0  0  0  0  0  0  0
   -6.0117   26.3114   20.6252 O   0  0  0  0  0  0  0  0  0  0  0  0
   -5.2872   25.9803   19.1395 P   0  0  0  0  0  5  0  0  0  0  0  0
   -5.3982   27.2478   18.3022 O   0  0  0  0  0  0  0  0  0  0  0  0
   -6.1216   24.7702   18.2895 O   0  0  0  0  0  0  0  0  0  0  0  0
   -3.6775   25.5762   19.3962 O   0  0  0  0  0  0  0  0  0  0  0  0
   -3.4926   23.9636   19.8683 P   0  0  0  0  0  5  0  0  0  0  0  0
   -2.2385   23.8150   20.6829 O   0  0  0  0  0  0  0  0  0  0  0  0
   -4.8007   23.4653   20.8395 O   0  0  0  0  0  0  0  0  0  0  0  0
   -3.4259   22.9328   18.5434 O   0  0  0  0  0  0  0  0  0  0  0  0
   -3.3497   21.6045   18.9656 C   0  0  0  0  0  0  0  0  0  0  0  0
   -4.2931   20.7281   18.1335 C   0  0  0  0  0  0  0  0  0  0  0  0
   -4.6519   21.4345   16.8444 C   0  0  0  0  0  0  0  0  0  0  0  0
   -3.7166   20.7605   15.8835 C   0  0  0  0  0  0  0  0  0  0  0  0
   -3.6262   19.3884   16.4631 C   0  0  0  0  0  0  0  0  0  0  0  0
   -3.6416   19.5676   17.8388 O   0  0  0  0  0  0  0  0  0  0  0  0
   -4.7430   18.5352   16.1256 N   0  0  0  0  0  0  0  0  0  0  0  0
   -5.8871   18.2846   16.7487 C   0  0  0  0  0  0  0  0  0  0  0  0
   -6.6369   17.4121   16.0566 N   0  0  0  0  0  0  0  0  0  0  0  0
   -5.9441   17.0994   14.9574 C   0  0  0  0  0  0  0  0  0  0  0  0
   -6.2692   16.2456   13.9182 C   0  0  0  0  0  0  0  0  0  0  0  0
   -5.3772   16.1157   12.9268 N   0  0  0  0  0  0  0  0  0  0  0  0
   -4.2057   16.7877   12.9341 C   0  0  0  0  0  0  0  0  0  0  0  0
   -3.9001   17.6216   13.9598 N   0  0  0  0  0  0  0  0  0  0  0  0
   -4.7626   17.7992   14.9991 C   0  0  0  0  0  0  0  0  0  0  0  0
   -7.5009   15.5350   13.9045 N   0  0  0  0  0  0  0  0  0  0  0  0
   -4.0772   20.8311   14.5736 O   0  0  0  0  0  0  0  0  0  0  0  0
   -4.4424   22.8085   16.9197 O   0  0  0  0  0  0  0  0  0  0  0  0
   -5.3318   25.8187   23.5438 O   0  0  0  0  0  0  0  0  0  0  0  0
   -5.0076   27.0879   25.6079 O   0  0  0  0  0  0  0  0  0  0  0  0
  1  2  1  0
  2  3  2  0
  3  4  1  0
  4  5  1  0
  5  6  2  0
  6  7  1  0
  7  8  2  0
  7  9  1  0
  4 10  1  0
 10 11  1  0
 11 12  1  0
 12 13  1  0
 13 14  1  0
 13 15  1  0
 15 16  1  0
 16 17  1  0
 17 18  2  0
 17 19  1  0
 17 20  1  0
 20 21  1  0
 21 22  2  0
 21 23  1  0
 21 24  1  0
 24 25  1  0
 25 26  1  0
 26 27  1  0
 27 28  1  0
 28 29  1  0
 29 30  1  0
 29 31  1  0
 31 32  1  0
 32 33  2  0
 33 34  1  0
 34 35  2  0
 35 36  1  0
 36 37  2  0
 37 38  1  0
 38 39  2  0
 35 40  1  0
 28 41  1  0
 27 42  1  0
 12 43  1  0
 11 44  1  0
  6  1  1  0
 14 10  1  0
 30 26  1  0
 39 31  1  0
 39 34  1  0
M  END
$$$$
