
     RDKit          3D

 44 48  0  0  0  0  0  0  0  0999 V2000
   -7.3260   32.4296   21.6684 C   0  0  0  0  0  0  0  0  0  0  0  0
   -6.4465   31.8111   20.6728 C   0  0  0  0  0  0  0  0  0  0  0  0
   -5.8380   30.6577   20.8341 C   0  0  0  0  0  0  0  0  0  0  0  0
   -6.0249   29.9249   22.0588 N   0  0  0  0  0  0  0  0  0  0  0  0
   -6.8605   30.4697   23.0549 C   0  0  0  0  0  0  0  0  0  0  0  0
   -7.4668   31.6221   22.8902 C   0  0  0  0  0  0  0  0  0  0  0  0
   -8.3400   32.1436   23.9867 C   0  0  0  0  0  0  0  0  0  0  0  0
   -9.2902   32.8755   23.6621 O   0  0  0  0  0  0  0  0  0  0  0  0
   -8.0639   31.7960   25.3272 N   0  0  0  0  0  0  0  0  0  0  0  0
   -5.3579   28.6694   22.2258 C   0  0  0  0  0  0  0  0  0  0  0  0
   -6.0720   27.7229   23.1289 C   0  0  0  0  0  0  0  0  0  0  0  0
   -6.3629   26.5470   22.2591 C   0  0  0  0  0  0  0  0  0  0  0  0
   -5.8157   26.9062   20.9244 C   0  0  0  0  0  0  0  0  0  0  0  0
   -5.0608   28.0373   21.0357 O   0  0  0  0  0  0  0  0  0  0  0  0
   -5.0595   25.7465   20.3013 C   0  0  0  0  0  0  0  0  0  0  0  0
   -5.9327   24.6651   20.0665 O   0  0  0  0  0  0  0  0  0  0  0  0
   -5.2104   23.2047   20.4992 P   0  0  0  0  0  5  0  0  0  0  0  0
   -4.6467   23.3898   21.9020 O   0  0  0  0  0  0  0  0  0  0  0  0
   -3.8902   22.8357   19.4973 O   0  0  0  0  0  0  0  0  0  0  0  0
   -6.3747   21.9945   20.4811 O   0  0  0  0  0  0  0  0  0  0  0  0
   -6.7464   21.4910   18.9108 P   0  0  0  0  0  5  0  0  0  0  0  0
   -7.4228   20.1498   18.9557 O   0  0  0  0  0  0  0  0  0  0  0  0
   -7.8184   22.5847   18.1642 O   0  0  0  0  0  0  0  0  0  0  0  0
   -5.3727   21.3941   17.9486 O   0  0  0  0  0  0  0  0  0  0  0  0
   -4.8014   20.1241   18.0451 C   0  0  0  0  0  0  0  0  0  0  0  0
   -5.3154   19.2235   16.9158 C   0  0  0  0  0  0  0  0  0  0  0  0
   -5.0873   19.8918   15.5777 C   0  0  0  0  0  0  0  0  0  0  0  0
   -3.8418   19.1902   15.1205 C   0  0  0  0  0  0  0  0  0  0  0  0
   -4.0215   17.8357   15.7203 C   0  0  0  0  0  0  0  0  0  0  0  0
   -4.6145   18.0550   16.9552 O   0  0  0  0  0  0  0  0  0  0  0  0
   -4.9014   16.9727   14.9651 N   0  0  0  0  0  0  0  0  0  0  0  0
   -6.2233   16.8675   14.9291 C   0  0  0  0  0  0  0  0  0  0  0  0
   -6.6120   15.9138   14.0677 N   0  0  0  0  0  0  0  0  0  0  0  0
   -5.4981   15.3974   13.5400 C   0  0  0  0  0  0  0  0  0  0  0  0
   -5.3456   14.3898   12.6039 C   0  0  0  0  0  0  0  0  0  0  0  0
   -4.0955   14.0656   12.2472 N   0  0  0  0  0  0  0  0  0  0  0  0
   -3.0220   14.6922   12.7754 C   0  0  0  0  0  0  0  0  0  0  0  0
   -3.1864   15.6785   13.6925 N   0  0  0  0  0  0  0  0  0  0  0  0
   -4.4303   16.0568   14.0988 C   0  0  0  0  0  0  0  0  0  0  0  0
   -6.4718   13.7260   12.0441 N   0  0  0  0  0  0  0  0  0  0  0  0
   -3.6142   19.2224   13.7797 O   0  0  0  0  0  0  0  0  0  0  0  0
   -4.9125   21.2675   15.6979 O   0  0  0  0  0  0  0  0  0  0  0  0
   -5.7490   25.4246   22.8188 O   0  0  0  0  0  0  0  0  0  0  0  0
   -5.3030   27.3546   24.2514 O   0  0  0  0  0  0  0  0  0  0  0  0
  1  2  1  0
  2  3  2  0
  3  4  1  0
  4  5  1  0
  5  6  2  0
  6  7  1  0
  7  8  2  0
  7  9  1  0
  4 10  1  0
 10 11  1  0
 11 12  1  0
 12 13  1  0
 13 14  1  0
 13 15  1  0
 15 16  1  0
 16 17  1  0
 17 18  2  0
 17 19  1  0
 17 20  1  0
 20 21  1  0
 21 22  2  0
 21 23  1  0
 21 24  1  0
 24 25  1  0
 25 26  1  0
 26 27  1  0
 27 28  1  0
 28 29  1  0
 29 30  1  0
 29 31  1  0
 31 32  1  0
 32 33  2  0
 33 34  1  0
 34 35  2  0
 35 36  1  0
 36 37  2  0
 37 38  1  0
 38 39  2  0
 35 40  1  0
 28 41  1  0
 27 42  1  0
 12 43  1  0
 11 44  1  0
  6  1  1  0
 14 10  1  0
 30 26  1  0
 39 31  1  0
 39 34  1  0
M  END
$$$$
