
     RDKit          3D

 44 48  0  0  0  0  0  0  0  0999 V2000
   -8.4584   32.1513   18.3964 C   0  0  0  0  0  0  0  0  0  0  0  0
   -9.3280   31.5428   19.4068 C   0  0  0  0  0  0  0  0  0  0  0  0
   -8.9722   30.5519   20.1930 C   0  0  0  0  0  0  0  0  0  0  0  0
   -7.6467   30.0022   20.0819 N   0  0  0  0  0  0  0  0  0  0  0  0
   -6.7639   30.5465   19.1271 C   0  0  0  0  0  0  0  0  0  0  0  0
   -7.1228   31.5364   18.3435 C   0  0  0  0  0  0  0  0  0  0  0  0
   -6.1376   32.0681   17.3517 C   0  0  0  0  0  0  0  0  0  0  0  0
   -4.9845   31.6064   17.3871 O   0  0  0  0  0  0  0  0  0  0  0  0
   -6.5392   33.0561   16.4263 N   0  0  0  0  0  0  0  0  0  0  0  0
   -7.2679   28.9226   20.9423 C   0  0  0  0  0  0  0  0  0  0  0  0
   -5.8675   29.0147   21.4443 C   0  0  0  0  0  0  0  0  0  0  0  0
   -6.0212   29.0883   22.9257 C   0  0  0  0  0  0  0  0  0  0  0  0
   -7.4877   29.0519   23.1666 C   0  0  0  0  0  0  0  0  0  0  0  0
   -8.1280   28.7330   22.0047 O   0  0  0  0  0  0  0  0  0  0  0  0
   -7.8415   28.1226   24.3139 C   0  0  0  0  0  0  0  0  0  0  0  0
   -7.3646   28.6483   25.5317 O   0  0  0  0  0  0  0  0  0  0  0  0
   -6.3678   27.5380   26.3161 P   0  0  0  0  0  5  0  0  0  0  0  0
   -6.8575   27.4449   27.7553 O   0  0  0  0  0  0  0  0  0  0  0  0
   -4.7606   28.0802   26.3911 O   0  0  0  0  0  0  0  0  0  0  0  0
   -6.4973   26.0508   25.5465 O   0  0  0  0  0  0  0  0  0  0  0  0
   -7.2565   24.8944   26.5179 P   0  0  0  0  0  5  0  0  0  0  0  0
   -6.5696   24.8243   27.8526 O   0  0  0  0  0  0  0  0  0  0  0  0
   -8.8838   25.3148   26.7967 O   0  0  0  0  0  0  0  0  0  0  0  0
   -7.2432   23.3756   25.8001 O   0  0  0  0  0  0  0  0  0  0  0  0
   -5.9349   22.9004   25.6943 C   0  0  0  0  0  0  0  0  0  0  0  0
   -5.9200   21.5387   24.9899 C   0  0  0  0  0  0  0  0  0  0  0  0
   -7.1902   20.7797   25.3058 C   0  0  0  0  0  0  0  0  0  0  0  0
   -7.9911   21.0405   24.0636 C   0  0  0  0  0  0  0  0  0  0  0  0
   -6.9211   21.1224   23.0267 C   0  0  0  0  0  0  0  0  0  0  0  0
   -5.8553   21.7589   23.6462 O   0  0  0  0  0  0  0  0  0  0  0  0
   -6.4492   19.8350   22.5692 N   0  0  0  0  0  0  0  0  0  0  0  0
   -5.5400   19.0002   23.0553 C   0  0  0  0  0  0  0  0  0  0  0  0
   -5.4278   17.9034   22.2892 N   0  0  0  0  0  0  0  0  0  0  0  0
   -6.2956   18.0485   21.2833 C   0  0  0  0  0  0  0  0  0  0  0  0
   -6.5718   17.2039   20.2227 C   0  0  0  0  0  0  0  0  0  0  0  0
   -7.5029   17.6023   19.3454 N   0  0  0  0  0  0  0  0  0  0  0  0
   -8.1503   18.7795   19.4837 C   0  0  0  0  0  0  0  0  0  0  0  0
   -7.8692   19.5978   20.5288 N   0  0  0  0  0  0  0  0  0  0  0  0
   -6.9335   19.2528   21.4566 C   0  0  0  0  0  0  0  0  0  0  0  0
   -5.8936   15.9631   20.0712 N   0  0  0  0  0  0  0  0  0  0  0  0
   -8.9913   20.1516   23.8183 O   0  0  0  0  0  0  0  0  0  0  0  0
   -7.8164   21.2540   26.4550 O   0  0  0  0  0  0  0  0  0  0  0  0
   -5.3462   28.0047   23.4914 O   0  0  0  0  0  0  0  0  0  0  0  0
   -5.0778   27.9110   21.0634 O   0  0  0  0  0  0  0  0  0  0  0  0
  1  2  1  0
  2  3  2  0
  3  4  1  0
  4  5  1  0
  5  6  2  0
  6  7  1  0
  7  8  2  0
  7  9  1  0
  4 10  1  0
 10 11  1  0
 11 12  1  0
 12 13  1  0
 13 14  1  0
 13 15  1  0
 15 16  1  0
 16 17  1  0
 17 18  2  0
 17 19  1  0
 17 20  1  0
 20 21  1  0
 21 22  2  0
 21 23  1  0
 21 24  1  0
 24 25  1  0
 25 26  1  0
 26 27  1  0
 27 28  1  0
 28 29  1  0
 29 30  1  0
 29 31  1  0
 31 32  1  0
 32 33  2  0
 33 34  1  0
 34 35  2  0
 35 36  1  0
 36 37  2  0
 37 38  1  0
 38 39  2  0
 35 40  1  0
 28 41  1  0
 27 42  1  0
 12 43  1  0
 11 44  1  0
  6  1  1  0
 14 10  1  0
 30 26  1  0
 39 31  1  0
 39 34  1  0
M  END
$$$$
