
     RDKit          3D

 44 48  0  0  0  0  0  0  0  0999 V2000
  -12.8522   28.1462   21.0582 C   0  0  0  0  0  0  0  0  0  0  0  0
  -12.0853   28.3126   19.8206 C   0  0  0  0  0  0  0  0  0  0  0  0
  -10.8987   28.8726   19.7522 C   0  0  0  0  0  0  0  0  0  0  0  0
  -10.2800   29.3673   20.9539 N   0  0  0  0  0  0  0  0  0  0  0  0
  -10.9699   29.2356   22.1762 C   0  0  0  0  0  0  0  0  0  0  0  0
  -12.1552   28.6756   22.2407 C   0  0  0  0  0  0  0  0  0  0  0  0
  -12.8329   28.5669   23.5696 C   0  0  0  0  0  0  0  0  0  0  0  0
  -13.9669   28.0596   23.5935 O   0  0  0  0  0  0  0  0  0  0  0  0
  -12.1777   29.0337   24.7300 N   0  0  0  0  0  0  0  0  0  0  0  0
   -8.9871   29.9761   20.8698 C   0  0  0  0  0  0  0  0  0  0  0  0
   -8.4407   30.4148   22.1853 C   0  0  0  0  0  0  0  0  0  0  0  0
   -7.1817   29.6290   22.3312 C   0  0  0  0  0  0  0  0  0  0  0  0
   -7.1044   28.7882   21.1077 C   0  0  0  0  0  0  0  0  0  0  0  0
   -8.0512   29.2008   20.2162 O   0  0  0  0  0  0  0  0  0  0  0  0
   -5.7028   28.7802   20.5242 C   0  0  0  0  0  0  0  0  0  0  0  0
   -4.9009   27.8347   21.1951 O   0  0  0  0  0  0  0  0  0  0  0  0
   -4.8303   26.3876   20.3334 P   0  0  0  0  0  5  0  0  0  0  0  0
   -5.9947   25.5310   20.8132 O   0  0  0  0  0  0  0  0  0  0  0  0
   -3.4169   25.5152   20.6855 O   0  0  0  0  0  0  0  0  0  0  0  0
   -4.9741   26.7220   18.6939 O   0  0  0  0  0  0  0  0  0  0  0  0
   -3.4720   26.9747   17.9608 P   0  0  0  0  0  5  0  0  0  0  0  0
   -3.4730   28.2971   17.2467 O   0  0  0  0  0  0  0  0  0  0  0  0
   -2.2310   27.0193   19.1273 O   0  0  0  0  0  0  0  0  0  0  0  0
   -3.0986   25.7504   16.8728 O   0  0  0  0  0  0  0  0  0  0  0  0
   -2.5612   24.6513   17.5448 C   0  0  0  0  0  0  0  0  0  0  0  0
   -3.5155   23.4549   17.4540 C   0  0  0  0  0  0  0  0  0  0  0  0
   -4.1012   23.3658   16.0617 C   0  0  0  0  0  0  0  0  0  0  0  0
   -3.2363   22.2972   15.4596 C   0  0  0  0  0  0  0  0  0  0  0  0
   -2.9428   21.4423   16.6469 C   0  0  0  0  0  0  0  0  0  0  0  0
   -2.7996   22.3233   17.7091 O   0  0  0  0  0  0  0  0  0  0  0  0
   -4.0075   20.5254   16.9860 N   0  0  0  0  0  0  0  0  0  0  0  0
   -4.9874   20.5956   17.8777 C   0  0  0  0  0  0  0  0  0  0  0  0
   -5.7554   19.4950   17.8439 N   0  0  0  0  0  0  0  0  0  0  0  0
   -5.2447   18.7004   16.8984 C   0  0  0  0  0  0  0  0  0  0  0  0
   -5.6622   17.4532   16.4685 C   0  0  0  0  0  0  0  0  0  0  0  0
   -4.9562   16.8719   15.4893 N   0  0  0  0  0  0  0  0  0  0  0  0
   -3.8790   17.4725   14.9388 C   0  0  0  0  0  0  0  0  0  0  0  0
   -3.4809   18.6957   15.3703 N   0  0  0  0  0  0  0  0  0  0  0  0
   -4.1544   19.3419   16.3625 C   0  0  0  0  0  0  0  0  0  0  0  0
   -6.7954   16.8154   17.0441 N   0  0  0  0  0  0  0  0  0  0  0  0
   -3.7660   21.6580   14.3818 O   0  0  0  0  0  0  0  0  0  0  0  0
   -4.0151   24.5734   15.3747 O   0  0  0  0  0  0  0  0  0  0  0  0
   -6.1167   30.5243   22.4488 O   0  0  0  0  0  0  0  0  0  0  0  0
   -8.1906   31.8010   22.2372 O   0  0  0  0  0  0  0  0  0  0  0  0
  1  2  1  0
  2  3  2  0
  3  4  1  0
  4  5  1  0
  5  6  2  0
  6  7  1  0
  7  8  2  0
  7  9  1  0
  4 10  1  0
 10 11  1  0
 11 12  1  0
 12 13  1  0
 13 14  1  0
 13 15  1  0
 15 16  1  0
 16 17  1  0
 17 18  2  0
 17 19  1  0
 17 20  1  0
 20 21  1  0
 21 22  2  0
 21 23  1  0
 21 24  1  0
 24 25  1  0
 25 26  1  0
 26 27  1  0
 27 28  1  0
 28 29  1  0
 29 30  1  0
 29 31  1  0
 31 32  1  0
 32 33  2  0
 33 34  1  0
 34 35  2  0
 35 36  1  0
 36 37  2  0
 37 38  1  0
 38 39  2  0
 35 40  1  0
 28 41  1  0
 27 42  1  0
 12 43  1  0
 11 44  1  0
  6  1  1  0
 14 10  1  0
 30 26  1  0
 39 31  1  0
 39 34  1  0
M  END
$$$$
