
     RDKit          3D

 44 48  0  0  0  0  0  0  0  0999 V2000
   -7.3361   21.7462   28.0303 C   0  0  0  0  0  0  0  0  0  0  0  0
   -6.0115   21.3844   27.5184 C   0  0  0  0  0  0  0  0  0  0  0  0
   -5.2400   22.1879   26.8217 C   0  0  0  0  0  0  0  0  0  0  0  0
   -5.6942   23.5205   26.5222 N   0  0  0  0  0  0  0  0  0  0  0  0
   -6.9611   23.9265   26.9882 C   0  0  0  0  0  0  0  0  0  0  0  0
   -7.7291   23.1211   27.6840 C   0  0  0  0  0  0  0  0  0  0  0  0
   -9.0624   23.6145   28.1487 C   0  0  0  0  0  0  0  0  0  0  0  0
   -9.4904   24.6664   27.6446 O   0  0  0  0  0  0  0  0  0  0  0  0
   -9.7775   22.8860   29.1243 N   0  0  0  0  0  0  0  0  0  0  0  0
   -4.8470   24.3889   25.7623 C   0  0  0  0  0  0  0  0  0  0  0  0
   -4.2314   23.7392   24.5705 C   0  0  0  0  0  0  0  0  0  0  0  0
   -4.7417   24.5406   23.4211 C   0  0  0  0  0  0  0  0  0  0  0  0
   -5.6214   25.5739   24.0279 C   0  0  0  0  0  0  0  0  0  0  0  0
   -5.4584   25.5662   25.3825 O   0  0  0  0  0  0  0  0  0  0  0  0
   -5.3855   26.9402   23.4092 C   0  0  0  0  0  0  0  0  0  0  0  0
   -5.6302   26.8958   22.0218 O   0  0  0  0  0  0  0  0  0  0  0  0
   -7.0836   27.6613   21.6432 P   0  0  0  0  0  5  0  0  0  0  0  0
   -7.0615   29.0176   22.3358 O   0  0  0  0  0  0  0  0  0  0  0  0
   -8.4182   26.8229   22.2746 O   0  0  0  0  0  0  0  0  0  0  0  0
   -7.1844   27.8460   19.9770 O   0  0  0  0  0  0  0  0  0  0  0  0
   -5.6740   27.7180   19.2289 P   0  0  0  0  0  5  0  0  0  0  0  0
   -5.4286   28.9285   18.3728 O   0  0  0  0  0  0  0  0  0  0  0  0
   -4.4295   27.6466   20.3902 O   0  0  0  0  0  0  0  0  0  0  0  0
   -5.5642   26.3325   18.2853 O   0  0  0  0  0  0  0  0  0  0  0  0
   -6.6422   26.2607   17.4014 C   0  0  0  0  0  0  0  0  0  0  0  0
   -6.4234   25.1316   16.3876 C   0  0  0  0  0  0  0  0  0  0  0  0
   -5.1209   25.3465   15.6482 C   0  0  0  0  0  0  0  0  0  0  0  0
   -4.2167   24.4059   16.3900 C   0  0  0  0  0  0  0  0  0  0  0  0
   -5.1628   23.3171   16.7723 C   0  0  0  0  0  0  0  0  0  0  0  0
   -6.3573   23.9553   17.0733 O   0  0  0  0  0  0  0  0  0  0  0  0
   -5.4317   22.3749   15.7096 N   0  0  0  0  0  0  0  0  0  0  0  0
   -6.2915   22.3995   14.6996 C   0  0  0  0  0  0  0  0  0  0  0  0
   -6.1913   21.2913   13.9485 N   0  0  0  0  0  0  0  0  0  0  0  0
   -5.2352   20.5390   14.5015 C   0  0  0  0  0  0  0  0  0  0  0  0
   -4.7459   19.3034   14.1159 C   0  0  0  0  0  0  0  0  0  0  0  0
   -3.7706   18.7678   14.8623 N   0  0  0  0  0  0  0  0  0  0  0  0
   -3.2793   19.4020   15.9488 C   0  0  0  0  0  0  0  0  0  0  0  0
   -3.7687   20.6132   16.3153 N   0  0  0  0  0  0  0  0  0  0  0  0
   -4.7605   21.2136   15.6001 C   0  0  0  0  0  0  0  0  0  0  0  0
   -5.2589   18.6304   12.9730 N   0  0  0  0  0  0  0  0  0  0  0  0
   -3.1017   24.0163   15.7150 O   0  0  0  0  0  0  0  0  0  0  0  0
   -4.6882   26.6679   15.7145 O   0  0  0  0  0  0  0  0  0  0  0  0
   -3.6475   25.0820   22.7434 O   0  0  0  0  0  0  0  0  0  0  0  0
   -2.8226   23.7421   24.6143 O   0  0  0  0  0  0  0  0  0  0  0  0
  1  2  1  0
  2  3  2  0
  3  4  1  0
  4  5  1  0
  5  6  2  0
  6  7  1  0
  7  8  2  0
  7  9  1  0
  4 10  1  0
 10 11  1  0
 11 12  1  0
 12 13  1  0
 13 14  1  0
 13 15  1  0
 15 16  1  0
 16 17  1  0
 17 18  2  0
 17 19  1  0
 17 20  1  0
 20 21  1  0
 21 22  2  0
 21 23  1  0
 21 24  1  0
 24 25  1  0
 25 26  1  0
 26 27  1  0
 27 28  1  0
 28 29  1  0
 29 30  1  0
 29 31  1  0
 31 32  1  0
 32 33  2  0
 33 34  1  0
 34 35  2  0
 35 36  1  0
 36 37  2  0
 37 38  1  0
 38 39  2  0
 35 40  1  0
 28 41  1  0
 27 42  1  0
 12 43  1  0
 11 44  1  0
  6  1  1  0
 14 10  1  0
 30 26  1  0
 39 31  1  0
 39 34  1  0
M  END
$$$$
