
     RDKit          3D

 44 48  0  0  0  0  0  0  0  0999 V2000
   -6.3667   33.1947   19.0886 C   0  0  0  0  0  0  0  0  0  0  0  0
   -6.7322   33.2141   20.5076 C   0  0  0  0  0  0  0  0  0  0  0  0
   -7.1564   32.1676   21.1793 C   0  0  0  0  0  0  0  0  0  0  0  0
   -7.2828   30.9005   20.5084 N   0  0  0  0  0  0  0  0  0  0  0  0
   -6.9457   30.8194   19.1420 C   0  0  0  0  0  0  0  0  0  0  0  0
   -6.5223   31.8670   18.4742 C   0  0  0  0  0  0  0  0  0  0  0  0
   -6.1811   31.7128   17.0262 C   0  0  0  0  0  0  0  0  0  0  0  0
   -5.5968   32.6592   16.4723 O   0  0  0  0  0  0  0  0  0  0  0  0
   -6.5257   30.5230   16.3484 N   0  0  0  0  0  0  0  0  0  0  0  0
   -7.7459   29.7658   21.2481 C   0  0  0  0  0  0  0  0  0  0  0  0
   -7.4782   28.4606   20.5800 C   0  0  0  0  0  0  0  0  0  0  0  0
   -6.6069   27.7339   21.5478 C   0  0  0  0  0  0  0  0  0  0  0  0
   -6.4227   28.6727   22.6856 C   0  0  0  0  0  0  0  0  0  0  0  0
   -7.2813   29.7239   22.5468 O   0  0  0  0  0  0  0  0  0  0  0  0
   -6.5623   27.9643   24.0212 C   0  0  0  0  0  0  0  0  0  0  0  0
   -6.0614   26.6499   23.9305 O   0  0  0  0  0  0  0  0  0  0  0  0
   -6.0777   25.8954   25.4379 P   0  0  0  0  0  5  0  0  0  0  0  0
   -7.3805   26.2956   26.1177 O   0  0  0  0  0  0  0  0  0  0  0  0
   -4.8243   26.4581   26.4355 O   0  0  0  0  0  0  0  0  0  0  0  0
   -6.0094   24.2321   25.2155 O   0  0  0  0  0  0  0  0  0  0  0  0
   -7.5440   23.5522   25.0156 P   0  0  0  0  0  5  0  0  0  0  0  0
   -8.4805   24.1014   26.0547 O   0  0  0  0  0  0  0  0  0  0  0  0
   -8.1834   23.9446   23.4859 O   0  0  0  0  0  0  0  0  0  0  0  0
   -7.5002   21.8767   25.1299 O   0  0  0  0  0  0  0  0  0  0  0  0
   -6.2182   21.4043   24.8442 C   0  0  0  0  0  0  0  0  0  0  0  0
   -6.2892   20.2553   23.8317 C   0  0  0  0  0  0  0  0  0  0  0  0
   -7.6875   20.1538   23.2627 C   0  0  0  0  0  0  0  0  0  0  0  0
   -7.5095   20.8581   21.9494 C   0  0  0  0  0  0  0  0  0  0  0  0
   -6.0969   20.5152   21.6124 C   0  0  0  0  0  0  0  0  0  0  0  0
   -5.4160   20.5282   22.8212 O   0  0  0  0  0  0  0  0  0  0  0  0
   -5.9346   19.1984   21.0388 N   0  0  0  0  0  0  0  0  0  0  0  0
   -5.4883   18.0581   21.5492 C   0  0  0  0  0  0  0  0  0  0  0  0
   -5.5139   17.0738   20.6365 N   0  0  0  0  0  0  0  0  0  0  0  0
   -5.9928   17.6090   19.5094 C   0  0  0  0  0  0  0  0  0  0  0  0
   -6.2175   17.0232   18.2761 C   0  0  0  0  0  0  0  0  0  0  0  0
   -6.7116   17.8035   17.3053 N   0  0  0  0  0  0  0  0  0  0  0  0
   -6.9820   19.1101   17.5142 C   0  0  0  0  0  0  0  0  0  0  0  0
   -6.7567   19.6713   18.7288 N   0  0  0  0  0  0  0  0  0  0  0  0
   -6.2556   18.9341   19.7588 C   0  0  0  0  0  0  0  0  0  0  0  0
   -5.9346   15.6481   18.0496 N   0  0  0  0  0  0  0  0  0  0  0  0
   -8.4372   20.5617   20.9994 O   0  0  0  0  0  0  0  0  0  0  0  0
   -8.6342   20.7701   24.0760 O   0  0  0  0  0  0  0  0  0  0  0  0
   -7.2499   26.5495   21.9135 O   0  0  0  0  0  0  0  0  0  0  0  0
   -8.6561   27.7370   20.3047 O   0  0  0  0  0  0  0  0  0  0  0  0
  1  2  1  0
  2  3  2  0
  3  4  1  0
  4  5  1  0
  5  6  2  0
  6  7  1  0
  7  8  2  0
  7  9  1  0
  4 10  1  0
 10 11  1  0
 11 12  1  0
 12 13  1  0
 13 14  1  0
 13 15  1  0
 15 16  1  0
 16 17  1  0
 17 18  2  0
 17 19  1  0
 17 20  1  0
 20 21  1  0
 21 22  2  0
 21 23  1  0
 21 24  1  0
 24 25  1  0
 25 26  1  0
 26 27  1  0
 27 28  1  0
 28 29  1  0
 29 30  1  0
 29 31  1  0
 31 32  1  0
 32 33  2  0
 33 34  1  0
 34 35  2  0
 35 36  1  0
 36 37  2  0
 37 38  1  0
 38 39  2  0
 35 40  1  0
 28 41  1  0
 27 42  1  0
 12 43  1  0
 11 44  1  0
  6  1  1  0
 14 10  1  0
 30 26  1  0
 39 31  1  0
 39 34  1  0
M  END
$$$$
