
     RDKit          3D

 44 48  0  0  0  0  0  0  0  0999 V2000
  -17.3139    8.0858   12.3109 C   0  0  0  0  0  0  0  0  0  0  0  0
  -17.8803    9.2640   11.6487 C   0  0  0  0  0  0  0  0  0  0  0  0
  -17.2097   10.3638   11.3892 C   0  0  0  0  0  0  0  0  0  0  0  0
  -15.8236   10.4524   11.7665 N   0  0  0  0  0  0  0  0  0  0  0  0
  -15.2228    9.3498   12.4073 C   0  0  0  0  0  0  0  0  0  0  0  0
  -15.8957    8.2529   12.6650 C   0  0  0  0  0  0  0  0  0  0  0  0
  -15.1982    7.1194   13.3474 C   0  0  0  0  0  0  0  0  0  0  0  0
  -14.0778    7.3471   13.8340 O   0  0  0  0  0  0  0  0  0  0  0  0
  -15.8206    5.8537   13.4161 N   0  0  0  0  0  0  0  0  0  0  0  0
  -15.1010   11.6545   11.4798 C   0  0  0  0  0  0  0  0  0  0  0  0
  -15.6772   12.8712   12.1194 C   0  0  0  0  0  0  0  0  0  0  0  0
  -14.5806   13.3678   12.9995 C   0  0  0  0  0  0  0  0  0  0  0  0
  -13.4679   12.3987   12.8183 C   0  0  0  0  0  0  0  0  0  0  0  0
  -13.7543   11.5738   11.7699 O   0  0  0  0  0  0  0  0  0  0  0  0
  -12.1320   13.1048   12.6706 C   0  0  0  0  0  0  0  0  0  0  0  0
  -11.8834   13.9176   13.7950 O   0  0  0  0  0  0  0  0  0  0  0  0
  -11.0300   13.0673   14.9742 P   0  0  0  0  0  5  0  0  0  0  0  0
   -9.6162   12.8733   14.4420 O   0  0  0  0  0  0  0  0  0  0  0  0
  -11.6691   11.5126   15.2136 O   0  0  0  0  0  0  0  0  0  0  0  0
  -11.0136   13.9685   16.3913 O   0  0  0  0  0  0  0  0  0  0  0  0
  -10.3040   15.4871   16.1728 P   0  0  0  0  0  5  0  0  0  0  0  0
  -10.6088   15.9945   14.7914 O   0  0  0  0  0  0  0  0  0  0  0  0
  -10.9328   16.6129   17.2862 O   0  0  0  0  0  0  0  0  0  0  0  0
   -8.6398   15.4323   16.3953 O   0  0  0  0  0  0  0  0  0  0  0  0
   -8.0668   16.6645   16.0760 C   0  0  0  0  0  0  0  0  0  0  0  0
   -6.6624   16.4624   15.4950 C   0  0  0  0  0  0  0  0  0  0  0  0
   -6.7227   16.4704   13.9832 C   0  0  0  0  0  0  0  0  0  0  0  0
   -6.2801   17.8743   13.6906 C   0  0  0  0  0  0  0  0  0  0  0  0
   -5.3278   18.1298   14.8107 C   0  0  0  0  0  0  0  0  0  0  0  0
   -5.8789   17.4958   15.9149 O   0  0  0  0  0  0  0  0  0  0  0  0
   -4.0127   17.5679   14.6011 N   0  0  0  0  0  0  0  0  0  0  0  0
   -3.5214   16.3554   14.8209 C   0  0  0  0  0  0  0  0  0  0  0  0
   -2.2271   16.2843   14.4715 N   0  0  0  0  0  0  0  0  0  0  0  0
   -1.8868   17.4932   14.0147 C   0  0  0  0  0  0  0  0  0  0  0  0
   -0.6726   17.9484   13.5317 C   0  0  0  0  0  0  0  0  0  0  0  0
   -0.6090   19.2262   13.1336 N   0  0  0  0  0  0  0  0  0  0  0  0
   -1.6823   20.0435   13.1979 C   0  0  0  0  0  0  0  0  0  0  0  0
   -2.8667   19.5836   13.6739 N   0  0  0  0  0  0  0  0  0  0  0  0
   -2.9995   18.2950   14.0949 C   0  0  0  0  0  0  0  0  0  0  0  0
    0.4613   17.0931   13.4615 N   0  0  0  0  0  0  0  0  0  0  0  0
   -5.7944   18.0823   12.4369 O   0  0  0  0  0  0  0  0  0  0  0  0
   -8.0021   16.2025   13.5047 O   0  0  0  0  0  0  0  0  0  0  0  0
  -14.2490   14.6636   12.5988 O   0  0  0  0  0  0  0  0  0  0  0  0
  -16.0660   13.8485   11.1811 O   0  0  0  0  0  0  0  0  0  0  0  0
  1  2  1  0
  2  3  2  0
  3  4  1  0
  4  5  1  0
  5  6  2  0
  6  7  1  0
  7  8  2  0
  7  9  1  0
  4 10  1  0
 10 11  1  0
 11 12  1  0
 12 13  1  0
 13 14  1  0
 13 15  1  0
 15 16  1  0
 16 17  1  0
 17 18  2  0
 17 19  1  0
 17 20  1  0
 20 21  1  0
 21 22  2  0
 21 23  1  0
 21 24  1  0
 24 25  1  0
 25 26  1  0
 26 27  1  0
 27 28  1  0
 28 29  1  0
 29 30  1  0
 29 31  1  0
 31 32  1  0
 32 33  2  0
 33 34  1  0
 34 35  2  0
 35 36  1  0
 36 37  2  0
 37 38  1  0
 38 39  2  0
 35 40  1  0
 28 41  1  0
 27 42  1  0
 12 43  1  0
 11 44  1  0
  6  1  1  0
 14 10  1  0
 30 26  1  0
 39 31  1  0
 39 34  1  0
M  END
$$$$
