
     RDKit          3D

 44 48  0  0  0  0  0  0  0  0999 V2000
    4.0328  -28.2912   -3.9897 C   0  0  0  0  0  0  0  0  0  0  0  0
    4.3817  -28.9467   -5.2530 C   0  0  0  0  0  0  0  0  0  0  0  0
    4.8178  -28.3168   -6.3205 C   0  0  0  0  0  0  0  0  0  0  0  0
    4.9755  -26.8867   -6.2825 N   0  0  0  0  0  0  0  0  0  0  0  0
    4.6555  -26.1999   -5.0937 C   0  0  0  0  0  0  0  0  0  0  0  0
    4.2202  -26.8324   -4.0292 C   0  0  0  0  0  0  0  0  0  0  0  0
    3.8988  -26.0438   -2.7997 C   0  0  0  0  0  0  0  0  0  0  0  0
    4.0700  -24.8141   -2.8479 O   0  0  0  0  0  0  0  0  0  0  0  0
    3.4214  -26.7063   -1.6478 N   0  0  0  0  0  0  0  0  0  0  0  0
    5.4510  -26.2089   -7.4503 C   0  0  0  0  0  0  0  0  0  0  0  0
    5.6320  -27.0988   -8.6321 C   0  0  0  0  0  0  0  0  0  0  0  0
    4.7055  -26.5318   -9.6538 C   0  0  0  0  0  0  0  0  0  0  0  0
    4.0501  -25.3768   -8.9857 C   0  0  0  0  0  0  0  0  0  0  0  0
    4.6862  -25.1170   -7.8069 O   0  0  0  0  0  0  0  0  0  0  0  0
    3.9810  -24.1682   -9.9021 C   0  0  0  0  0  0  0  0  0  0  0  0
    2.9659  -24.3436  -10.8643 O   0  0  0  0  0  0  0  0  0  0  0  0
    3.5203  -23.9367  -12.4034 P   0  0  0  0  0  5  0  0  0  0  0  0
    2.4868  -24.4533  -13.3957 O   0  0  0  0  0  0  0  0  0  0  0  0
    4.9773  -24.7252  -12.7751 O   0  0  0  0  0  0  0  0  0  0  0  0
    3.6618  -22.2664  -12.5076 O   0  0  0  0  0  0  0  0  0  0  0  0
    3.3837  -21.6998  -14.0757 P   0  0  0  0  0  5  0  0  0  0  0  0
    4.6509  -21.7893  -14.8787 O   0  0  0  0  0  0  0  0  0  0  0  0
    2.2073  -22.6496  -14.8609 O   0  0  0  0  0  0  0  0  0  0  0  0
    2.8324  -20.1129  -14.0736 O   0  0  0  0  0  0  0  0  0  0  0  0
    3.5341  -19.3568  -13.1331 C   0  0  0  0  0  0  0  0  0  0  0  0
    3.3914  -17.8616  -13.4408 C   0  0  0  0  0  0  0  0  0  0  0  0
    1.9312  -17.4660  -13.4158 C   0  0  0  0  0  0  0  0  0  0  0  0
    1.8278  -16.8549  -12.0489 C   0  0  0  0  0  0  0  0  0  0  0  0
    3.1880  -16.2655  -11.8786 C   0  0  0  0  0  0  0  0  0  0  0  0
    4.0577  -17.1664  -12.4760 O   0  0  0  0  0  0  0  0  0  0  0  0
    3.3619  -14.9925  -12.5408 N   0  0  0  0  0  0  0  0  0  0  0  0
    3.8383  -14.6734  -13.7371 C   0  0  0  0  0  0  0  0  0  0  0  0
    3.8117  -13.3455  -13.9328 N   0  0  0  0  0  0  0  0  0  0  0  0
    3.3009  -12.8049  -12.8225 C   0  0  0  0  0  0  0  0  0  0  0  0
    3.0618  -11.4778  -12.5122 C   0  0  0  0  0  0  0  0  0  0  0  0
    2.5346  -11.2127  -11.3092 N   0  0  0  0  0  0  0  0  0  0  0  0
    2.2454  -12.1955  -10.4293 C   0  0  0  0  0  0  0  0  0  0  0  0
    2.4853  -13.4926  -10.7470 N   0  0  0  0  0  0  0  0  0  0  0  0
    3.0198  -13.8310  -11.9533 C   0  0  0  0  0  0  0  0  0  0  0  0
    3.3641  -10.4382  -13.4342 N   0  0  0  0  0  0  0  0  0  0  0  0
    0.7827  -16.0026  -11.8697 O   0  0  0  0  0  0  0  0  0  0  0  0
    1.0854  -18.5596  -13.5779 O   0  0  0  0  0  0  0  0  0  0  0  0
    5.4572  -26.1637  -10.7716 O   0  0  0  0  0  0  0  0  0  0  0  0
    6.9616  -27.1213   -9.0995 O   0  0  0  0  0  0  0  0  0  0  0  0
  1  2  1  0
  2  3  2  0
  3  4  1  0
  4  5  1  0
  5  6  2  0
  6  7  1  0
  7  8  2  0
  7  9  1  0
  4 10  1  0
 10 11  1  0
 11 12  1  0
 12 13  1  0
 13 14  1  0
 13 15  1  0
 15 16  1  0
 16 17  1  0
 17 18  2  0
 17 19  1  0
 17 20  1  0
 20 21  1  0
 21 22  2  0
 21 23  1  0
 21 24  1  0
 24 25  1  0
 25 26  1  0
 26 27  1  0
 27 28  1  0
 28 29  1  0
 29 30  1  0
 29 31  1  0
 31 32  1  0
 32 33  2  0
 33 34  1  0
 34 35  2  0
 35 36  1  0
 36 37  2  0
 37 38  1  0
 38 39  2  0
 35 40  1  0
 28 41  1  0
 27 42  1  0
 12 43  1  0
 11 44  1  0
  6  1  1  0
 14 10  1  0
 30 26  1  0
 39 31  1  0
 39 34  1  0
M  END
$$$$
