
     RDKit          3D

 44 48  0  0  0  0  0  0  0  0999 V2000
   -5.2337   23.6493   15.3092 C   0  0  0  0  0  0  0  0  0  0  0  0
   -5.3069   25.1129   15.3110 C   0  0  0  0  0  0  0  0  0  0  0  0
   -5.8709   25.8269   16.2589 C   0  0  0  0  0  0  0  0  0  0  0  0
   -6.4671   25.1599   17.3865 N   0  0  0  0  0  0  0  0  0  0  0  0
   -6.4279   23.7518   17.4407 C   0  0  0  0  0  0  0  0  0  0  0  0
   -5.8636   23.0419   16.4919 C   0  0  0  0  0  0  0  0  0  0  0  0
   -5.8561   21.5510   16.6108 C   0  0  0  0  0  0  0  0  0  0  0  0
   -6.3061   21.0585   17.6591 O   0  0  0  0  0  0  0  0  0  0  0  0
   -5.3492   20.7666   15.5517 N   0  0  0  0  0  0  0  0  0  0  0  0
   -7.0795   25.9459   18.4144 C   0  0  0  0  0  0  0  0  0  0  0  0
   -6.7009   25.5326   19.7954 C   0  0  0  0  0  0  0  0  0  0  0  0
   -6.0451   26.7444   20.3658 C   0  0  0  0  0  0  0  0  0  0  0  0
   -6.0771   27.7535   19.2746 C   0  0  0  0  0  0  0  0  0  0  0  0
   -6.8795   27.3033   18.2671 O   0  0  0  0  0  0  0  0  0  0  0  0
   -6.4845   29.1215   19.7919 C   0  0  0  0  0  0  0  0  0  0  0  0
   -6.4708   29.1335   21.2014 O   0  0  0  0  0  0  0  0  0  0  0  0
   -6.4588   30.7135   21.7887 P   0  0  0  0  0  5  0  0  0  0  0  0
   -7.4567   31.5031   20.9517 O   0  0  0  0  0  0  0  0  0  0  0  0
   -4.9492   31.4567   21.5615 O   0  0  0  0  0  0  0  0  0  0  0  0
   -6.9183   30.6980   23.4040 O   0  0  0  0  0  0  0  0  0  0  0  0
   -8.3728   29.8710   23.6450 P   0  0  0  0  0  5  0  0  0  0  0  0
   -9.5004   30.8562   23.7730 O   0  0  0  0  0  0  0  0  0  0  0  0
   -8.7192   28.8599   22.3182 O   0  0  0  0  0  0  0  0  0  0  0  0
   -8.3162   28.9026   25.0166 O   0  0  0  0  0  0  0  0  0  0  0  0
   -6.9928   28.6053   25.3464 C   0  0  0  0  0  0  0  0  0  0  0  0
   -6.7951   27.0874   25.4324 C   0  0  0  0  0  0  0  0  0  0  0  0
   -7.1328   26.4464   24.1040 C   0  0  0  0  0  0  0  0  0  0  0  0
   -5.7610   26.2577   23.5250 C   0  0  0  0  0  0  0  0  0  0  0  0
   -4.9469   26.0149   24.7518 C   0  0  0  0  0  0  0  0  0  0  0  0
   -5.4849   26.8479   25.7221 O   0  0  0  0  0  0  0  0  0  0  0  0
   -5.0286   24.6608   25.2505 N   0  0  0  0  0  0  0  0  0  0  0  0
   -5.8639   24.0782   26.1007 C   0  0  0  0  0  0  0  0  0  0  0  0
   -5.5576   22.7824   26.2727 N   0  0  0  0  0  0  0  0  0  0  0  0
   -4.4918   22.5357   25.5050 C   0  0  0  0  0  0  0  0  0  0  0  0
   -3.7856   21.3601   25.3207 C   0  0  0  0  0  0  0  0  0  0  0  0
   -2.7422   21.3945   24.4808 N   0  0  0  0  0  0  0  0  0  0  0  0
   -2.3875   22.5271   23.8361 C   0  0  0  0  0  0  0  0  0  0  0  0
   -3.0892   23.6727   24.0265 N   0  0  0  0  0  0  0  0  0  0  0  0
   -4.1607   23.7064   24.8669 C   0  0  0  0  0  0  0  0  0  0  0  0
   -4.1537   20.1643   25.9965 N   0  0  0  0  0  0  0  0  0  0  0  0
   -5.6654   25.3135   22.5503 O   0  0  0  0  0  0  0  0  0  0  0  0
   -7.9388   27.2616   23.3145 O   0  0  0  0  0  0  0  0  0  0  0  0
   -6.7609   27.1390   21.4979 O   0  0  0  0  0  0  0  0  0  0  0  0
   -7.8100   25.1356   20.5694 O   0  0  0  0  0  0  0  0  0  0  0  0
  1  2  1  0
  2  3  2  0
  3  4  1  0
  4  5  1  0
  5  6  2  0
  6  7  1  0
  7  8  2  0
  7  9  1  0
  4 10  1  0
 10 11  1  0
 11 12  1  0
 12 13  1  0
 13 14  1  0
 13 15  1  0
 15 16  1  0
 16 17  1  0
 17 18  2  0
 17 19  1  0
 17 20  1  0
 20 21  1  0
 21 22  2  0
 21 23  1  0
 21 24  1  0
 24 25  1  0
 25 26  1  0
 26 27  1  0
 27 28  1  0
 28 29  1  0
 29 30  1  0
 29 31  1  0
 31 32  1  0
 32 33  2  0
 33 34  1  0
 34 35  2  0
 35 36  1  0
 36 37  2  0
 37 38  1  0
 38 39  2  0
 35 40  1  0
 28 41  1  0
 27 42  1  0
 12 43  1  0
 11 44  1  0
  6  1  1  0
 14 10  1  0
 30 26  1  0
 39 31  1  0
 39 34  1  0
M  END
$$$$
