
     RDKit          3D

 44 48  0  0  0  0  0  0  0  0999 V2000
   -9.9867   21.4738   26.4129 C   0  0  0  0  0  0  0  0  0  0  0  0
  -10.4830   22.8128   26.0839 C   0  0  0  0  0  0  0  0  0  0  0  0
   -9.7223   23.8772   25.9617 C   0  0  0  0  0  0  0  0  0  0  0  0
   -8.3014   23.7569   26.1571 N   0  0  0  0  0  0  0  0  0  0  0  0
   -7.7647   22.4930   26.4759 C   0  0  0  0  0  0  0  0  0  0  0  0
   -8.5277   21.4320   26.5972 C   0  0  0  0  0  0  0  0  0  0  0  0
   -7.8944   20.1202   26.9369 C   0  0  0  0  0  0  0  0  0  0  0  0
   -8.4784   19.4004   27.7644 O   0  0  0  0  0  0  0  0  0  0  0  0
   -6.6796   19.7486   26.3205 N   0  0  0  0  0  0  0  0  0  0  0  0
   -7.4805   24.9219   26.0221 C   0  0  0  0  0  0  0  0  0  0  0  0
   -6.0437   24.6204   25.7647 C   0  0  0  0  0  0  0  0  0  0  0  0
   -5.7754   25.2540   24.4416 C   0  0  0  0  0  0  0  0  0  0  0  0
   -7.0711   25.8538   24.0281 C   0  0  0  0  0  0  0  0  0  0  0  0
   -7.9409   25.8177   25.0787 O   0  0  0  0  0  0  0  0  0  0  0  0
   -6.8835   27.2494   23.4603 C   0  0  0  0  0  0  0  0  0  0  0  0
   -5.9988   27.2145   22.3635 O   0  0  0  0  0  0  0  0  0  0  0  0
   -4.7869   28.3740   22.5320 P   0  0  0  0  0  5  0  0  0  0  0  0
   -3.4574   27.6320   22.4921 O   0  0  0  0  0  0  0  0  0  0  0  0
   -4.8603   29.1443   24.0434 O   0  0  0  0  0  0  0  0  0  0  0  0
   -4.8969   29.4660   21.2607 O   0  0  0  0  0  0  0  0  0  0  0  0
   -6.0890   29.0276   20.1453 P   0  0  0  0  0  5  0  0  0  0  0  0
   -7.3979   28.8264   20.8557 O   0  0  0  0  0  0  0  0  0  0  0  0
   -6.3140   30.2574   18.9878 O   0  0  0  0  0  0  0  0  0  0  0  0
   -5.6787   27.6243   19.3178 O   0  0  0  0  0  0  0  0  0  0  0  0
   -6.5180   27.4476   18.2165 C   0  0  0  0  0  0  0  0  0  0  0  0
   -6.4095   26.0112   17.6914 C   0  0  0  0  0  0  0  0  0  0  0  0
   -6.2242   26.0227   16.1898 C   0  0  0  0  0  0  0  0  0  0  0  0
   -4.7408   25.8187   16.0869 C   0  0  0  0  0  0  0  0  0  0  0  0
   -4.4711   24.9616   17.2783 C   0  0  0  0  0  0  0  0  0  0  0  0
   -5.3201   25.4311   18.2701 O   0  0  0  0  0  0  0  0  0  0  0  0
   -4.7755   23.5633   17.0748 N   0  0  0  0  0  0  0  0  0  0  0  0
   -5.8160   22.8216   17.4313 C   0  0  0  0  0  0  0  0  0  0  0  0
   -5.6701   21.5509   17.0233 N   0  0  0  0  0  0  0  0  0  0  0  0
   -4.4970   21.4854   16.3865 C   0  0  0  0  0  0  0  0  0  0  0  0
   -3.8777   20.4077   15.7786 C   0  0  0  0  0  0  0  0  0  0  0  0
   -2.6861   20.6256   15.2059 N   0  0  0  0  0  0  0  0  0  0  0  0
   -2.1061   21.8452   15.2171 C   0  0  0  0  0  0  0  0  0  0  0  0
   -2.7249   22.8931   15.8170 N   0  0  0  0  0  0  0  0  0  0  0  0
   -3.9378   22.7399   16.4178 C   0  0  0  0  0  0  0  0  0  0  0  0
   -4.4829   19.1209   15.7634 N   0  0  0  0  0  0  0  0  0  0  0  0
   -4.3009   25.3355   14.8937 O   0  0  0  0  0  0  0  0  0  0  0  0
   -6.6402   27.2207   15.6159 O   0  0  0  0  0  0  0  0  0  0  0  0
   -4.7614   26.1999   24.6057 O   0  0  0  0  0  0  0  0  0  0  0  0
   -5.1913   25.1336   26.7630 O   0  0  0  0  0  0  0  0  0  0  0  0
  1  2  1  0
  2  3  2  0
  3  4  1  0
  4  5  1  0
  5  6  2  0
  6  7  1  0
  7  8  2  0
  7  9  1  0
  4 10  1  0
 10 11  1  0
 11 12  1  0
 12 13  1  0
 13 14  1  0
 13 15  1  0
 15 16  1  0
 16 17  1  0
 17 18  2  0
 17 19  1  0
 17 20  1  0
 20 21  1  0
 21 22  2  0
 21 23  1  0
 21 24  1  0
 24 25  1  0
 25 26  1  0
 26 27  1  0
 27 28  1  0
 28 29  1  0
 29 30  1  0
 29 31  1  0
 31 32  1  0
 32 33  2  0
 33 34  1  0
 34 35  2  0
 35 36  1  0
 36 37  2  0
 37 38  1  0
 38 39  2  0
 35 40  1  0
 28 41  1  0
 27 42  1  0
 12 43  1  0
 11 44  1  0
  6  1  1  0
 14 10  1  0
 30 26  1  0
 39 31  1  0
 39 34  1  0
M  END
$$$$
