
     RDKit          3D

 44 48  0  0  0  0  0  0  0  0999 V2000
    8.3233  -16.1022  -17.0221 C   0  0  0  0  0  0  0  0  0  0  0  0
    7.8415  -15.2380  -15.9411 C   0  0  0  0  0  0  0  0  0  0  0  0
    7.6206  -15.6417  -14.7104 C   0  0  0  0  0  0  0  0  0  0  0  0
    7.8569  -17.0188  -14.3649 N   0  0  0  0  0  0  0  0  0  0  0  0
    8.3212  -17.8990  -15.3633 C   0  0  0  0  0  0  0  0  0  0  0  0
    8.5408  -17.4922  -16.5917 C   0  0  0  0  0  0  0  0  0  0  0  0
    9.0335  -18.4776  -17.6032 C   0  0  0  0  0  0  0  0  0  0  0  0
    8.7643  -19.6756  -17.4130 O   0  0  0  0  0  0  0  0  0  0  0  0
    9.7730  -18.0261  -18.7182 N   0  0  0  0  0  0  0  0  0  0  0  0
    7.6133  -17.4497  -13.0217 C   0  0  0  0  0  0  0  0  0  0  0  0
    6.4195  -16.8167  -12.3926 C   0  0  0  0  0  0  0  0  0  0  0  0
    5.5263  -17.9686  -12.0777 C   0  0  0  0  0  0  0  0  0  0  0  0
    6.2566  -19.1699  -12.5607 C   0  0  0  0  0  0  0  0  0  0  0  0
    7.5350  -18.8207  -12.8853 O   0  0  0  0  0  0  0  0  0  0  0  0
    6.1884  -20.3056  -11.5553 C   0  0  0  0  0  0  0  0  0  0  0  0
    7.2871  -21.1724  -11.7239 O   0  0  0  0  0  0  0  0  0  0  0  0
    8.0088  -21.5231  -10.2414 P   0  0  0  0  0  5  0  0  0  0  0  0
    8.1339  -20.2050   -9.4886 O   0  0  0  0  0  0  0  0  0  0  0  0
    9.5882  -22.1152  -10.4360 O   0  0  0  0  0  0  0  0  0  0  0  0
    7.0306  -22.5981   -9.3998 O   0  0  0  0  0  0  0  0  0  0  0  0
    5.4331  -22.5724   -9.9518 P   0  0  0  0  0  5  0  0  0  0  0  0
    4.5567  -21.8973   -8.9348 O   0  0  0  0  0  0  0  0  0  0  0  0
    5.3107  -21.6910  -11.4047 O   0  0  0  0  0  0  0  0  0  0  0  0
    4.8547  -24.1211  -10.2505 O   0  0  0  0  0  0  0  0  0  0  0  0
    4.0286  -24.5402   -9.2063 C   0  0  0  0  0  0  0  0  0  0  0  0
    4.1886  -26.0473   -8.9748 C   0  0  0  0  0  0  0  0  0  0  0  0
    4.3950  -26.7539  -10.2967 C   0  0  0  0  0  0  0  0  0  0  0  0
    5.8853  -26.9319  -10.2919 C   0  0  0  0  0  0  0  0  0  0  0  0
    6.1640  -27.0999   -8.8356 C   0  0  0  0  0  0  0  0  0  0  0  0
    5.2868  -26.2399   -8.1907 O   0  0  0  0  0  0  0  0  0  0  0  0
    5.9057  -28.4328   -8.3397 N   0  0  0  0  0  0  0  0  0  0  0  0
    4.7789  -29.1112   -8.1662 C   0  0  0  0  0  0  0  0  0  0  0  0
    5.0197  -30.3362   -7.6725 N   0  0  0  0  0  0  0  0  0  0  0  0
    6.3445  -30.4374   -7.5284 C   0  0  0  0  0  0  0  0  0  0  0  0
    7.1067  -31.4926   -7.0593 C   0  0  0  0  0  0  0  0  0  0  0  0
    8.4352  -31.3222   -7.0201 N   0  0  0  0  0  0  0  0  0  0  0  0
    9.0147  -30.1699   -7.4206 C   0  0  0  0  0  0  0  0  0  0  0  0
    8.2547  -29.1433   -7.8784 N   0  0  0  0  0  0  0  0  0  0  0  0
    6.8984  -29.2509   -7.9442 C   0  0  0  0  0  0  0  0  0  0  0  0
    6.5028  -32.7084   -6.6359 N   0  0  0  0  0  0  0  0  0  0  0  0
    6.3569  -27.9148  -11.1058 O   0  0  0  0  0  0  0  0  0  0  0  0
    3.9507  -25.9951  -11.3758 O   0  0  0  0  0  0  0  0  0  0  0  0
    5.2983  -17.9832  -10.7001 O   0  0  0  0  0  0  0  0  0  0  0  0
    6.7391  -16.0816  -11.2332 O   0  0  0  0  0  0  0  0  0  0  0  0
  1  2  1  0
  2  3  2  0
  3  4  1  0
  4  5  1  0
  5  6  2  0
  6  7  1  0
  7  8  2  0
  7  9  1  0
  4 10  1  0
 10 11  1  0
 11 12  1  0
 12 13  1  0
 13 14  1  0
 13 15  1  0
 15 16  1  0
 16 17  1  0
 17 18  2  0
 17 19  1  0
 17 20  1  0
 20 21  1  0
 21 22  2  0
 21 23  1  0
 21 24  1  0
 24 25  1  0
 25 26  1  0
 26 27  1  0
 27 28  1  0
 28 29  1  0
 29 30  1  0
 29 31  1  0
 31 32  1  0
 32 33  2  0
 33 34  1  0
 34 35  2  0
 35 36  1  0
 36 37  2  0
 37 38  1  0
 38 39  2  0
 35 40  1  0
 28 41  1  0
 27 42  1  0
 12 43  1  0
 11 44  1  0
  6  1  1  0
 14 10  1  0
 30 26  1  0
 39 31  1  0
 39 34  1  0
M  END
$$$$
